Zilents_TKL
*SPICE Netlist generated by Advanced Sim server on 6/28/2019 4:05:34 PM

*Schematic Netlist:

.SAVE 0


*Selected Circuit Analyses:
.TRAN 2E-8 5E-6 0 2E-8
.OP

.END
